$DATA1 SOURCE='FineSimPro' VERSION='L-2016.06-SP2-2'
.TITLE '** Generated for: hspiceD'
    avgvall0bl0    avgvall0bl1    avgvall0bl2    avgvall0bl3    avgvall0bl4    avgvall0bl5    avgvall0bl6    avgvall0bl7    avgvall0bl8    avgvall0bl9   avgvall0bl10   avgvall0bl11   avgvall0bl12   avgvall0bl13   avgvall0bl14   avgvall0bl15   avgvall0bl16   avgvall0bl17   avgvall0bl18   avgvall0bl19   avgvall0bl20   avgvall0bl21   avgvall0bl22   avgvall0bl23   avgvall0bl24   avgvall0bl25   avgvall0bl26   avgvall0bl27   avgvall0bl28   avgvall0bl29   avgvall0bl30   avgvall0bl31   avgvall0bl32   avgvall0bl33   avgvall0bl34   avgvall0bl35   avgvall0bl36   avgvall0bl37   avgvall0bl38   avgvall0bl39   avgvall0bl40   avgvall0bl41   avgvall0bl42   avgvall0bl43   avgvall0bl44   avgvall0bl45   avgvall0bl46   avgvall0bl47   avgvall0bl48   avgvall0bl49   avgvall0bl50   avgvall0bl51   avgvall0bl52   avgvall0bl53   avgvall0bl54   avgvall0bl55   avgvall0bl56   avgvall0bl57   avgvall0bl58   avgvall0bl59   avgvall0bl60   avgvall0bl61   avgvall0bl62   avgvall0bl63   avgvall0bl64   avgvall0bl65   avgvall0bl66   avgvall0bl67   avgvall0bl68   avgvall0bl69   avgvall0bl70   avgvall0bl71   avgvall0bl72   avgvall0bl73   avgvall0bl74   avgvall0bl75   avgvall0bl76   avgvall0bl77   avgvall0bl78   avgvall0bl79   avgvall0bl80   avgvall0bl81   avgvall0bl82   avgvall0bl83   avgvall0bl84   avgvall0bl85   avgvall0bl86   avgvall0bl87   avgvall0bl88   avgvall0bl89   avgvall0bl90   avgvall0bl91   avgvall0bl92   avgvall0bl93   avgvall0bl94   avgvall0bl95   avgvall0bl96   avgvall0bl97   avgvall0bl98   avgvall0bl99  avgvall0bl100  avgvall0bl101  avgvall0bl102  avgvall0bl103  avgvall0bl104  avgvall0bl105  avgvall0bl106  avgvall0bl107  avgvall0bl108  avgvall0bl109  avgvall0bl110  avgvall0bl111  avgvall0bl112  avgvall0bl113  avgvall0bl114  avgvall0bl115  avgvall0bl116  avgvall0bl117  avgvall0bl118  avgvall0bl119  avgvall0bl120  avgvall0bl121  avgvall0bl122  avgvall0bl123  avgvall0bl124  avgvall0bl125  avgvall0bl126  avgvall0bl127  avgvall0bl128  avgvall0bl129  avgvall0bl130  avgvall0bl131  avgvall0bl132  avgvall0bl133  avgvall0bl134  avgvall0bl135  avgvall0bl136  avgvall0bl137  avgvall0bl138  avgvall0bl139  avgvall0bl140  avgvall0bl141  avgvall0bl142  avgvall0bl143  avgvall0bl144  avgvall0bl145  avgvall0bl146  avgvall0bl147  avgvall0bl148  avgvall0bl149  avgvall0bl150  avgvall0bl151  avgvall0bl152  avgvall0bl153  avgvall0bl154  avgvall0bl155  avgvall0bl156  avgvall0bl157  avgvall0bl158  avgvall0bl159  avgvall0bl160  avgvall0bl161  avgvall0bl162  avgvall0bl163  avgvall0bl164  avgvall0bl165  avgvall0bl166  avgvall0bl167  avgvall0bl168  avgvall0bl169  avgvall0bl170  avgvall0bl171  avgvall0bl172  avgvall0bl173  avgvall0bl174  avgvall0bl175  avgvall0bl176  avgvall0bl177  avgvall0bl178  avgvall0bl179  avgvall0bl180  avgvall0bl181  avgvall0bl182  avgvall0bl183  avgvall0bl184  avgvall0bl185  avgvall0bl186  avgvall0bl187  avgvall0bl188  avgvall0bl189  avgvall0bl190  avgvall0bl191  avgvall0bl192  avgvall0bl193  avgvall0bl194  avgvall0bl195  avgvall0bl196  avgvall0bl197  avgvall0bl198  avgvall0bl199  avgvall0bl200  avgvall0bl201  avgvall0bl202  avgvall0bl203  avgvall0bl204  avgvall0bl205  avgvall0bl206  avgvall0bl207  avgvall0bl208  avgvall0bl209  avgvall0bl210  avgvall0bl211  avgvall0bl212  avgvall0bl213  avgvall0bl214  avgvall0bl215  avgvall0bl216  avgvall0bl217  avgvall0bl218  avgvall0bl219  avgvall0bl220  avgvall0bl221  avgvall0bl222  avgvall0bl223  avgvall0bl224  avgvall0bl225  avgvall0bl226  avgvall0bl227  avgvall0bl228  avgvall0bl229  avgvall0bl230  avgvall0bl231  avgvall0bl232  avgvall0bl233  avgvall0bl234  avgvall0bl235  avgvall0bl236  avgvall0bl237  avgvall0bl238  avgvall0bl239  avgvall0bl240  avgvall0bl241  avgvall0bl242  avgvall0bl243  avgvall0bl244  avgvall0bl245  avgvall0bl246  avgvall0bl247  avgvall0bl248  avgvall0bl249  avgvall0bl250  avgvall0bl251  avgvall0bl252  avgvall0bl253  avgvall0bl254  avgvall0bl255  avgvall0bl256  avgvall0bl257  avgvall0bl258  avgvall0bl259  avgvall0bl260  avgvall0bl261  avgvall0bl262  avgvall0bl263  avgvall0bl264  avgvall0bl265  avgvall0bl266  avgvall0bl267  avgvall0bl268  avgvall0bl269  avgvall0bl270  avgvall0bl271  avgvall0bl272  avgvall0bl273  avgvall0bl274  avgvall0bl275  avgvall0bl276  avgvall0bl277  avgvall0bl278  avgvall0bl279  avgvall0bl280  avgvall0bl281  avgvall0bl282  avgvall0bl283  avgvall0bl284  avgvall0bl285  avgvall0bl286  avgvall0bl287  avgvall0bl288  avgvall0bl289  avgvall0bl290  avgvall0bl291  avgvall0bl292  avgvall0bl293  avgvall0bl294  avgvall0bl295  avgvall0bl296  avgvall0bl297  avgvall0bl298  avgvall0bl299  avgvall0bl300  avgvall0bl301  avgvall0bl302  avgvall0bl303  avgvall0bl304  avgvall0bl305  avgvall0bl306  avgvall0bl307  avgvall0bl308  avgvall0bl309  avgvall0bl310  avgvall0bl311  avgvall0bl312  avgvall0bl313  avgvall0bl314  avgvall0bl315  avgvall0bl316  avgvall0bl317  avgvall0bl318  avgvall0bl319  avgvall0bl320  avgvall0bl321  avgvall0bl322  avgvall0bl323  avgvall0bl324  avgvall0bl325  avgvall0bl326  avgvall0bl327  avgvall0bl328  avgvall0bl329  avgvall0bl330  avgvall0bl331  avgvall0bl332  avgvall0bl333  avgvall0bl334  avgvall0bl335  avgvall0bl336  avgvall0bl337  avgvall0bl338  avgvall0bl339  avgvall0bl340  avgvall0bl341  avgvall0bl342  avgvall0bl343  avgvall0bl344  avgvall0bl345  avgvall0bl346  avgvall0bl347  avgvall0bl348  avgvall0bl349  avgvall0bl350  avgvall0bl351  avgvall0bl352  avgvall0bl353  avgvall0bl354  avgvall0bl355  avgvall0bl356  avgvall0bl357  avgvall0bl358  avgvall0bl359  avgvall0bl360  avgvall0bl361  avgvall0bl362  avgvall0bl363  avgvall0bl364  avgvall0bl365  avgvall0bl366  avgvall0bl367  avgvall0bl368  avgvall0bl369  avgvall0bl370  avgvall0bl371  avgvall0bl372  avgvall0bl373  avgvall0bl374  avgvall0bl375  avgvall0bl376  avgvall0bl377  avgvall0bl378  avgvall0bl379  avgvall0bl380  avgvall0bl381  avgvall0bl382  avgvall0bl383  avgvall0bl384  avgvall0bl385  avgvall0bl386  avgvall0bl387  avgvall0bl388  avgvall0bl389  avgvall0bl390  avgvall0bl391  avgvall0bl392  avgvall0bl393  avgvall0bl394  avgvall0bl395  avgvall0bl396  avgvall0bl397  avgvall0bl398  avgvall0bl399  avgvall0bl400  avgvall0bl401  avgvall0bl402  avgvall0bl403  avgvall0bl404  avgvall0bl405  avgvall0bl406  avgvall0bl407  avgvall0bl408  avgvall0bl409  avgvall0bl410  avgvall0bl411  avgvall0bl412  avgvall0bl413  avgvall0bl414  avgvall0bl415  avgvall0bl416  avgvall0bl417  avgvall0bl418  avgvall0bl419  avgvall0bl420  avgvall0bl421  avgvall0bl422  avgvall0bl423  avgvall0bl424  avgvall0bl425  avgvall0bl426  avgvall0bl427  avgvall0bl428  avgvall0bl429  avgvall0bl430  avgvall0bl431  avgvall0bl432  avgvall0bl433  avgvall0bl434  avgvall0bl435  avgvall0bl436  avgvall0bl437  avgvall0bl438  avgvall0bl439  avgvall0bl440  avgvall0bl441  avgvall0bl442  avgvall0bl443  avgvall0bl444  avgvall0bl445  avgvall0bl446  avgvall0bl447  avgvall0bl448  avgvall0bl449  avgvall0bl450  avgvall0bl451  avgvall0bl452  avgvall0bl453  avgvall0bl454  avgvall0bl455  avgvall0bl456  avgvall0bl457  avgvall0bl458  avgvall0bl459  avgvall0bl460  avgvall0bl461  avgvall0bl462  avgvall0bl463  avgvall0bl464  avgvall0bl465  avgvall0bl466  avgvall0bl467  avgvall0bl468  avgvall0bl469  avgvall0bl470  avgvall0bl471  avgvall0bl472  avgvall0bl473  avgvall0bl474  avgvall0bl475  avgvall0bl476  avgvall0bl477  avgvall0bl478  avgvall0bl479  avgvall0bl480  avgvall0bl481  avgvall0bl482  avgvall0bl483  avgvall0bl484  avgvall0bl485  avgvall0bl486  avgvall0bl487  avgvall0bl488  avgvall0bl489  avgvall0bl490  avgvall0bl491  avgvall0bl492  avgvall0bl493  avgvall0bl494  avgvall0bl495  avgvall0bl496  avgvall0bl497  avgvall0bl498  avgvall0bl499  avgvall0bl500  avgvall0bl501  avgvall0bl502  avgvall0bl503  avgvall0bl504  avgvall0bl505  avgvall0bl506  avgvall0bl507  avgvall0bl508  avgvall0bl509  avgvall0bl510  avgvall0bl511    avgvall1bl0    avgvall1bl1    avgvall1bl2    avgvall1bl3    avgvall1bl4    avgvall1bl5    avgvall1bl6    avgvall1bl7    avgvall1bl8    avgvall1bl9   avgvall1bl10   avgvall1bl11   avgvall1bl12   avgvall1bl13   avgvall1bl14   avgvall1bl15   avgvall1bl16   avgvall1bl17   avgvall1bl18   avgvall1bl19   avgvall1bl20   avgvall1bl21   avgvall1bl22   avgvall1bl23   avgvall1bl24   avgvall1bl25   avgvall1bl26   avgvall1bl27   avgvall1bl28   avgvall1bl29   avgvall1bl30   avgvall1bl31   avgvall1bl32   avgvall1bl33   avgvall1bl34   avgvall1bl35   avgvall1bl36   avgvall1bl37   avgvall1bl38   avgvall1bl39   avgvall1bl40   avgvall1bl41   avgvall1bl42   avgvall1bl43   avgvall1bl44   avgvall1bl45   avgvall1bl46   avgvall1bl47   avgvall1bl48   avgvall1bl49   avgvall1bl50   avgvall1bl51   avgvall1bl52   avgvall1bl53   avgvall1bl54   avgvall1bl55   avgvall1bl56   avgvall1bl57   avgvall1bl58   avgvall1bl59   avgvall1bl60   avgvall1bl61   avgvall1bl62   avgvall1bl63   avgvall1bl64   avgvall1bl65   avgvall1bl66   avgvall1bl67   avgvall1bl68   avgvall1bl69   avgvall1bl70   avgvall1bl71   avgvall1bl72   avgvall1bl73   avgvall1bl74   avgvall1bl75   avgvall1bl76   avgvall1bl77   avgvall1bl78   avgvall1bl79   avgvall1bl80   avgvall1bl81   avgvall1bl82   avgvall1bl83   avgvall1bl84   avgvall1bl85   avgvall1bl86   avgvall1bl87   avgvall1bl88   avgvall1bl89   avgvall1bl90   avgvall1bl91   avgvall1bl92   avgvall1bl93   avgvall1bl94   avgvall1bl95   avgvall1bl96   avgvall1bl97   avgvall1bl98   avgvall1bl99  avgvall1bl100  avgvall1bl101  avgvall1bl102  avgvall1bl103  avgvall1bl104  avgvall1bl105  avgvall1bl106  avgvall1bl107  avgvall1bl108  avgvall1bl109  avgvall1bl110  avgvall1bl111  avgvall1bl112  avgvall1bl113  avgvall1bl114  avgvall1bl115  avgvall1bl116  avgvall1bl117  avgvall1bl118  avgvall1bl119  avgvall1bl120  avgvall1bl121  avgvall1bl122  avgvall1bl123  avgvall1bl124  avgvall1bl125  avgvall1bl126  avgvall1bl127  avgvall1bl128  avgvall1bl129  avgvall1bl130  avgvall1bl131  avgvall1bl132  avgvall1bl133  avgvall1bl134  avgvall1bl135  avgvall1bl136  avgvall1bl137  avgvall1bl138  avgvall1bl139  avgvall1bl140  avgvall1bl141  avgvall1bl142  avgvall1bl143  avgvall1bl144  avgvall1bl145  avgvall1bl146  avgvall1bl147  avgvall1bl148  avgvall1bl149  avgvall1bl150  avgvall1bl151  avgvall1bl152  avgvall1bl153  avgvall1bl154  avgvall1bl155  avgvall1bl156  avgvall1bl157  avgvall1bl158  avgvall1bl159  avgvall1bl160  avgvall1bl161  avgvall1bl162  avgvall1bl163  avgvall1bl164  avgvall1bl165  avgvall1bl166  avgvall1bl167  avgvall1bl168  avgvall1bl169  avgvall1bl170  avgvall1bl171  avgvall1bl172  avgvall1bl173  avgvall1bl174  avgvall1bl175  avgvall1bl176  avgvall1bl177  avgvall1bl178  avgvall1bl179  avgvall1bl180  avgvall1bl181  avgvall1bl182  avgvall1bl183  avgvall1bl184  avgvall1bl185  avgvall1bl186  avgvall1bl187  avgvall1bl188  avgvall1bl189  avgvall1bl190  avgvall1bl191  avgvall1bl192  avgvall1bl193  avgvall1bl194  avgvall1bl195  avgvall1bl196  avgvall1bl197  avgvall1bl198  avgvall1bl199  avgvall1bl200  avgvall1bl201  avgvall1bl202  avgvall1bl203  avgvall1bl204  avgvall1bl205  avgvall1bl206  avgvall1bl207  avgvall1bl208  avgvall1bl209  avgvall1bl210  avgvall1bl211  avgvall1bl212  avgvall1bl213  avgvall1bl214  avgvall1bl215  avgvall1bl216  avgvall1bl217  avgvall1bl218  avgvall1bl219  avgvall1bl220  avgvall1bl221  avgvall1bl222  avgvall1bl223  avgvall1bl224  avgvall1bl225  avgvall1bl226  avgvall1bl227  avgvall1bl228  avgvall1bl229  avgvall1bl230  avgvall1bl231  avgvall1bl232  avgvall1bl233  avgvall1bl234  avgvall1bl235  avgvall1bl236  avgvall1bl237  avgvall1bl238  avgvall1bl239  avgvall1bl240  avgvall1bl241  avgvall1bl242  avgvall1bl243  avgvall1bl244  avgvall1bl245  avgvall1bl246  avgvall1bl247  avgvall1bl248  avgvall1bl249  avgvall1bl250  avgvall1bl251  avgvall1bl252  avgvall1bl253  avgvall1bl254  avgvall1bl255  avgvall1bl256  avgvall1bl257  avgvall1bl258  avgvall1bl259  avgvall1bl260  avgvall1bl261  avgvall1bl262  avgvall1bl263  avgvall1bl264  avgvall1bl265  avgvall1bl266  avgvall1bl267  avgvall1bl268  avgvall1bl269  avgvall1bl270  avgvall1bl271  avgvall1bl272  avgvall1bl273  avgvall1bl274  avgvall1bl275  avgvall1bl276  avgvall1bl277  avgvall1bl278  avgvall1bl279  avgvall1bl280  avgvall1bl281  avgvall1bl282  avgvall1bl283  avgvall1bl284  avgvall1bl285  avgvall1bl286  avgvall1bl287  avgvall1bl288  avgvall1bl289  avgvall1bl290  avgvall1bl291  avgvall1bl292  avgvall1bl293  avgvall1bl294  avgvall1bl295  avgvall1bl296  avgvall1bl297  avgvall1bl298  avgvall1bl299  avgvall1bl300  avgvall1bl301  avgvall1bl302  avgvall1bl303  avgvall1bl304  avgvall1bl305  avgvall1bl306  avgvall1bl307  avgvall1bl308  avgvall1bl309  avgvall1bl310  avgvall1bl311  avgvall1bl312  avgvall1bl313  avgvall1bl314  avgvall1bl315  avgvall1bl316  avgvall1bl317  avgvall1bl318  avgvall1bl319  avgvall1bl320  avgvall1bl321  avgvall1bl322  avgvall1bl323  avgvall1bl324  avgvall1bl325  avgvall1bl326  avgvall1bl327  avgvall1bl328  avgvall1bl329  avgvall1bl330  avgvall1bl331  avgvall1bl332  avgvall1bl333  avgvall1bl334  avgvall1bl335  avgvall1bl336  avgvall1bl337  avgvall1bl338  avgvall1bl339  avgvall1bl340  avgvall1bl341  avgvall1bl342  avgvall1bl343  avgvall1bl344  avgvall1bl345  avgvall1bl346  avgvall1bl347  avgvall1bl348  avgvall1bl349  avgvall1bl350  avgvall1bl351  avgvall1bl352  avgvall1bl353  avgvall1bl354  avgvall1bl355  avgvall1bl356  avgvall1bl357  avgvall1bl358  avgvall1bl359  avgvall1bl360  avgvall1bl361  avgvall1bl362  avgvall1bl363  avgvall1bl364  avgvall1bl365  avgvall1bl366  avgvall1bl367  avgvall1bl368  avgvall1bl369  avgvall1bl370  avgvall1bl371  avgvall1bl372  avgvall1bl373  avgvall1bl374  avgvall1bl375  avgvall1bl376  avgvall1bl377  avgvall1bl378  avgvall1bl379  avgvall1bl380  avgvall1bl381  avgvall1bl382  avgvall1bl383  avgvall1bl384  avgvall1bl385  avgvall1bl386  avgvall1bl387  avgvall1bl388  avgvall1bl389  avgvall1bl390  avgvall1bl391  avgvall1bl392  avgvall1bl393  avgvall1bl394  avgvall1bl395  avgvall1bl396  avgvall1bl397  avgvall1bl398  avgvall1bl399  avgvall1bl400  avgvall1bl401  avgvall1bl402  avgvall1bl403  avgvall1bl404  avgvall1bl405  avgvall1bl406  avgvall1bl407  avgvall1bl408  avgvall1bl409  avgvall1bl410  avgvall1bl411  avgvall1bl412  avgvall1bl413  avgvall1bl414  avgvall1bl415  avgvall1bl416  avgvall1bl417  avgvall1bl418  avgvall1bl419  avgvall1bl420  avgvall1bl421  avgvall1bl422  avgvall1bl423  avgvall1bl424  avgvall1bl425  avgvall1bl426  avgvall1bl427  avgvall1bl428  avgvall1bl429  avgvall1bl430  avgvall1bl431  avgvall1bl432  avgvall1bl433  avgvall1bl434  avgvall1bl435  avgvall1bl436  avgvall1bl437  avgvall1bl438  avgvall1bl439  avgvall1bl440  avgvall1bl441  avgvall1bl442  avgvall1bl443  avgvall1bl444  avgvall1bl445  avgvall1bl446  avgvall1bl447  avgvall1bl448  avgvall1bl449  avgvall1bl450  avgvall1bl451  avgvall1bl452  avgvall1bl453  avgvall1bl454  avgvall1bl455  avgvall1bl456  avgvall1bl457  avgvall1bl458  avgvall1bl459  avgvall1bl460  avgvall1bl461  avgvall1bl462  avgvall1bl463  avgvall1bl464  avgvall1bl465  avgvall1bl466  avgvall1bl467  avgvall1bl468  avgvall1bl469  avgvall1bl470  avgvall1bl471  avgvall1bl472  avgvall1bl473  avgvall1bl474  avgvall1bl475  avgvall1bl476  avgvall1bl477  avgvall1bl478  avgvall1bl479  avgvall1bl480  avgvall1bl481  avgvall1bl482  avgvall1bl483  avgvall1bl484  avgvall1bl485  avgvall1bl486  avgvall1bl487  avgvall1bl488  avgvall1bl489  avgvall1bl490  avgvall1bl491  avgvall1bl492  avgvall1bl493  avgvall1bl494  avgvall1bl495  avgvall1bl496  avgvall1bl497  avgvall1bl498  avgvall1bl499  avgvall1bl500  avgvall1bl501  avgvall1bl502  avgvall1bl503  avgvall1bl504  avgvall1bl505  avgvall1bl506  avgvall1bl507  avgvall1bl508  avgvall1bl509  avgvall1bl510  avgvall1bl511    avgvall2bl0    avgvall2bl1    avgvall2bl2    avgvall2bl3    avgvall2bl4    avgvall2bl5    avgvall2bl6    avgvall2bl7    avgvall2bl8    avgvall2bl9   avgvall2bl10   avgvall2bl11   avgvall2bl12   avgvall2bl13   avgvall2bl14   avgvall2bl15   avgvall2bl16   avgvall2bl17   avgvall2bl18   avgvall2bl19   avgvall2bl20   avgvall2bl21   avgvall2bl22   avgvall2bl23   avgvall2bl24   avgvall2bl25   avgvall2bl26   avgvall2bl27   avgvall2bl28   avgvall2bl29   avgvall2bl30   avgvall2bl31   avgvall2bl32   avgvall2bl33   avgvall2bl34   avgvall2bl35   avgvall2bl36   avgvall2bl37   avgvall2bl38   avgvall2bl39   avgvall2bl40   avgvall2bl41   avgvall2bl42   avgvall2bl43   avgvall2bl44   avgvall2bl45   avgvall2bl46   avgvall2bl47   avgvall2bl48   avgvall2bl49   avgvall2bl50   avgvall2bl51   avgvall2bl52   avgvall2bl53   avgvall2bl54   avgvall2bl55   avgvall2bl56   avgvall2bl57   avgvall2bl58   avgvall2bl59   avgvall2bl60   avgvall2bl61   avgvall2bl62   avgvall2bl63   avgvall2bl64   avgvall2bl65   avgvall2bl66   avgvall2bl67   avgvall2bl68   avgvall2bl69   avgvall2bl70   avgvall2bl71   avgvall2bl72   avgvall2bl73   avgvall2bl74   avgvall2bl75   avgvall2bl76   avgvall2bl77   avgvall2bl78   avgvall2bl79   avgvall2bl80   avgvall2bl81   avgvall2bl82   avgvall2bl83   avgvall2bl84   avgvall2bl85   avgvall2bl86   avgvall2bl87   avgvall2bl88   avgvall2bl89   avgvall2bl90   avgvall2bl91   avgvall2bl92   avgvall2bl93   avgvall2bl94   avgvall2bl95   avgvall2bl96   avgvall2bl97   avgvall2bl98   avgvall2bl99  avgvall2bl100  avgvall2bl101  avgvall2bl102  avgvall2bl103  avgvall2bl104  avgvall2bl105  avgvall2bl106  avgvall2bl107  avgvall2bl108  avgvall2bl109  avgvall2bl110  avgvall2bl111  avgvall2bl112  avgvall2bl113  avgvall2bl114  avgvall2bl115  avgvall2bl116  avgvall2bl117  avgvall2bl118  avgvall2bl119  avgvall2bl120  avgvall2bl121  avgvall2bl122  avgvall2bl123  avgvall2bl124  avgvall2bl125  avgvall2bl126  avgvall2bl127  avgvall2bl128  avgvall2bl129  avgvall2bl130  avgvall2bl131  avgvall2bl132  avgvall2bl133  avgvall2bl134  avgvall2bl135  avgvall2bl136  avgvall2bl137  avgvall2bl138  avgvall2bl139  avgvall2bl140  avgvall2bl141  avgvall2bl142  avgvall2bl143  avgvall2bl144  avgvall2bl145  avgvall2bl146  avgvall2bl147  avgvall2bl148  avgvall2bl149  avgvall2bl150  avgvall2bl151  avgvall2bl152  avgvall2bl153  avgvall2bl154  avgvall2bl155  avgvall2bl156  avgvall2bl157  avgvall2bl158  avgvall2bl159  avgvall2bl160  avgvall2bl161  avgvall2bl162  avgvall2bl163  avgvall2bl164  avgvall2bl165  avgvall2bl166  avgvall2bl167  avgvall2bl168  avgvall2bl169  avgvall2bl170  avgvall2bl171  avgvall2bl172  avgvall2bl173  avgvall2bl174  avgvall2bl175  avgvall2bl176  avgvall2bl177  avgvall2bl178  avgvall2bl179  avgvall2bl180  avgvall2bl181  avgvall2bl182  avgvall2bl183  avgvall2bl184  avgvall2bl185  avgvall2bl186  avgvall2bl187  avgvall2bl188  avgvall2bl189  avgvall2bl190  avgvall2bl191  avgvall2bl192  avgvall2bl193  avgvall2bl194  avgvall2bl195  avgvall2bl196  avgvall2bl197  avgvall2bl198  avgvall2bl199  avgvall2bl200  avgvall2bl201  avgvall2bl202  avgvall2bl203  avgvall2bl204  avgvall2bl205  avgvall2bl206  avgvall2bl207  avgvall2bl208  avgvall2bl209  avgvall2bl210  avgvall2bl211  avgvall2bl212  avgvall2bl213  avgvall2bl214  avgvall2bl215  avgvall2bl216  avgvall2bl217  avgvall2bl218  avgvall2bl219  avgvall2bl220  avgvall2bl221  avgvall2bl222  avgvall2bl223  avgvall2bl224  avgvall2bl225  avgvall2bl226  avgvall2bl227  avgvall2bl228  avgvall2bl229  avgvall2bl230  avgvall2bl231  avgvall2bl232  avgvall2bl233  avgvall2bl234  avgvall2bl235  avgvall2bl236  avgvall2bl237  avgvall2bl238  avgvall2bl239  avgvall2bl240  avgvall2bl241  avgvall2bl242  avgvall2bl243  avgvall2bl244  avgvall2bl245  avgvall2bl246  avgvall2bl247  avgvall2bl248  avgvall2bl249  avgvall2bl250  avgvall2bl251  avgvall2bl252  avgvall2bl253  avgvall2bl254  avgvall2bl255  avgvall2bl256  avgvall2bl257  avgvall2bl258  avgvall2bl259  avgvall2bl260  avgvall2bl261  avgvall2bl262  avgvall2bl263  avgvall2bl264  avgvall2bl265  avgvall2bl266  avgvall2bl267  avgvall2bl268  avgvall2bl269  avgvall2bl270  avgvall2bl271  avgvall2bl272  avgvall2bl273  avgvall2bl274  avgvall2bl275  avgvall2bl276  avgvall2bl277  avgvall2bl278  avgvall2bl279  avgvall2bl280  avgvall2bl281  avgvall2bl282  avgvall2bl283  avgvall2bl284  avgvall2bl285  avgvall2bl286  avgvall2bl287  avgvall2bl288  avgvall2bl289  avgvall2bl290  avgvall2bl291  avgvall2bl292  avgvall2bl293  avgvall2bl294  avgvall2bl295  avgvall2bl296  avgvall2bl297  avgvall2bl298  avgvall2bl299  avgvall2bl300  avgvall2bl301  avgvall2bl302  avgvall2bl303  avgvall2bl304  avgvall2bl305  avgvall2bl306  avgvall2bl307  avgvall2bl308  avgvall2bl309  avgvall2bl310  avgvall2bl311  avgvall2bl312  avgvall2bl313  avgvall2bl314  avgvall2bl315  avgvall2bl316  avgvall2bl317  avgvall2bl318  avgvall2bl319  avgvall2bl320  avgvall2bl321  avgvall2bl322  avgvall2bl323  avgvall2bl324  avgvall2bl325  avgvall2bl326  avgvall2bl327  avgvall2bl328  avgvall2bl329  avgvall2bl330  avgvall2bl331  avgvall2bl332  avgvall2bl333  avgvall2bl334  avgvall2bl335  avgvall2bl336  avgvall2bl337  avgvall2bl338  avgvall2bl339  avgvall2bl340  avgvall2bl341  avgvall2bl342  avgvall2bl343  avgvall2bl344  avgvall2bl345  avgvall2bl346  avgvall2bl347  avgvall2bl348  avgvall2bl349  avgvall2bl350  avgvall2bl351  avgvall2bl352  avgvall2bl353  avgvall2bl354  avgvall2bl355  avgvall2bl356  avgvall2bl357  avgvall2bl358  avgvall2bl359  avgvall2bl360  avgvall2bl361  avgvall2bl362  avgvall2bl363  avgvall2bl364  avgvall2bl365  avgvall2bl366  avgvall2bl367  avgvall2bl368  avgvall2bl369  avgvall2bl370  avgvall2bl371  avgvall2bl372  avgvall2bl373  avgvall2bl374  avgvall2bl375  avgvall2bl376  avgvall2bl377  avgvall2bl378  avgvall2bl379  avgvall2bl380  avgvall2bl381  avgvall2bl382  avgvall2bl383  avgvall2bl384  avgvall2bl385  avgvall2bl386  avgvall2bl387  avgvall2bl388  avgvall2bl389  avgvall2bl390  avgvall2bl391  avgvall2bl392  avgvall2bl393  avgvall2bl394  avgvall2bl395  avgvall2bl396  avgvall2bl397  avgvall2bl398  avgvall2bl399  avgvall2bl400  avgvall2bl401  avgvall2bl402  avgvall2bl403  avgvall2bl404  avgvall2bl405  avgvall2bl406  avgvall2bl407  avgvall2bl408  avgvall2bl409  avgvall2bl410  avgvall2bl411  avgvall2bl412  avgvall2bl413  avgvall2bl414  avgvall2bl415  avgvall2bl416  avgvall2bl417  avgvall2bl418  avgvall2bl419  avgvall2bl420  avgvall2bl421  avgvall2bl422  avgvall2bl423  avgvall2bl424  avgvall2bl425  avgvall2bl426  avgvall2bl427  avgvall2bl428  avgvall2bl429  avgvall2bl430  avgvall2bl431  avgvall2bl432  avgvall2bl433  avgvall2bl434  avgvall2bl435  avgvall2bl436  avgvall2bl437  avgvall2bl438  avgvall2bl439  avgvall2bl440  avgvall2bl441  avgvall2bl442  avgvall2bl443  avgvall2bl444  avgvall2bl445  avgvall2bl446  avgvall2bl447  avgvall2bl448  avgvall2bl449  avgvall2bl450  avgvall2bl451  avgvall2bl452  avgvall2bl453  avgvall2bl454  avgvall2bl455  avgvall2bl456  avgvall2bl457  avgvall2bl458  avgvall2bl459  avgvall2bl460  avgvall2bl461  avgvall2bl462  avgvall2bl463  avgvall2bl464  avgvall2bl465  avgvall2bl466  avgvall2bl467  avgvall2bl468  avgvall2bl469  avgvall2bl470  avgvall2bl471  avgvall2bl472  avgvall2bl473  avgvall2bl474  avgvall2bl475  avgvall2bl476  avgvall2bl477  avgvall2bl478  avgvall2bl479  avgvall2bl480  avgvall2bl481  avgvall2bl482  avgvall2bl483  avgvall2bl484  avgvall2bl485  avgvall2bl486  avgvall2bl487  avgvall2bl488  avgvall2bl489  avgvall2bl490  avgvall2bl491  avgvall2bl492  avgvall2bl493  avgvall2bl494  avgvall2bl495  avgvall2bl496  avgvall2bl497  avgvall2bl498  avgvall2bl499  avgvall2bl500  avgvall2bl501  avgvall2bl502  avgvall2bl503  avgvall2bl504  avgvall2bl505  avgvall2bl506  avgvall2bl507  avgvall2bl508  avgvall2bl509  avgvall2bl510  avgvall2bl511        avgval0        avgval1        avgval2        avgval3        avgval4        avgval5        avgval6        avgval7        avgval8        avgval9            bld          bldin          czabd         temper         alter#
     4.5822e-01     4.4523e-01     4.1333e-01     4.2134e-01     3.0883e-01     4.0860e-01     5.4299e-01     5.2826e-01     4.5544e-01     4.4334e-01     4.1332e-01     5.5045e-01     4.3623e-01     4.5412e-01     2.9486e-01     4.5489e-01     4.7145e-01     4.7453e-01     4.2097e-01     4.1062e-01     2.4927e-01     3.9540e-01     4.2554e-01     4.1930e-01     4.0638e-01     4.1462e-01     3.9685e-01     2.5919e-01     4.4658e-01     5.3307e-01     4.5547e-01     4.1152e-01     4.9808e-01     4.5244e-01     3.8179e-01     4.4002e-01     4.0464e-01     5.0882e-01     4.3551e-01     4.1116e-01     4.2007e-01     4.3881e-01     5.1215e-01     4.3161e-01     5.0155e-01     3.5566e-01     4.2651e-01     4.4110e-01     4.1086e-01     4.5147e-01     4.2757e-01     4.4585e-01     4.5268e-01     4.7061e-01     4.1288e-01     4.6264e-01     3.4159e-01     4.3416e-01     4.0240e-01     4.2795e-01     3.8578e-01     3.8032e-01     5.2888e-01     3.0882e-01     4.0754e-01     4.5233e-01     5.1321e-01     5.1010e-01     5.9152e-01     4.2075e-01     4.6230e-01     5.3307e-01     4.2411e-01     2.5777e-01     2.5259e-01     5.2316e-01     4.2808e-01     4.2119e-01     5.0156e-01     5.4780e-01     4.4297e-01     5.3194e-01     2.7465e-01     4.9759e-01     5.1271e-01     2.7387e-01     4.4435e-01     4.8740e-01     4.1057e-01     4.1025e-01     4.7024e-01     4.8032e-01     4.1682e-01     4.3829e-01     5.1120e-01     4.3043e-01     5.4333e-01     4.3279e-01     4.2286e-01     4.1265e-01     4.3466e-01     4.1792e-01     5.1590e-01     4.4339e-01     4.1663e-01     3.9606e-01     4.3598e-01     4.3358e-01     3.9936e-01     3.5599e-01     4.6262e-01     2.9844e-01     5.0635e-01     4.0702e-01     5.1884e-01     4.4955e-01     4.3507e-01     4.5259e-01     5.4291e-01     5.2183e-01     4.4141e-01     4.4086e-01     4.5802e-01     3.4052e-01     4.1247e-01     4.5388e-01     4.9619e-01     4.0217e-01     4.4123e-01     2.7424e-01     4.5446e-01     4.4098e-01     4.6437e-01     3.1372e-01     5.3530e-01     4.9314e-01     4.2769e-01     3.1630e-01     3.9793e-01     3.5568e-01     4.4644e-01     4.1834e-01     4.2813e-01     4.1543e-01     3.2606e-01     4.0535e-01     4.0989e-01     4.0332e-01     5.0960e-01     4.0287e-01     2.8460e-01     4.3301e-01     4.2386e-01     4.0701e-01     4.3675e-01     4.3053e-01     4.5404e-01     5.0725e-01     4.0504e-01     4.2967e-01     4.0350e-01     4.2347e-01     3.0438e-01     4.2690e-01     4.9226e-01     4.3654e-01     3.6847e-01     4.1572e-01     4.3676e-01     5.5162e-01     4.4239e-01     3.4302e-01     4.3676e-01     3.8845e-01     3.3144e-01     4.1102e-01     2.4361e-01     5.1164e-01     5.1656e-01     4.8519e-01     4.4762e-01     4.0052e-01     4.5232e-01     4.3623e-01     4.2212e-01     4.3301e-01     5.4999e-01     4.3300e-01     4.0814e-01     4.1035e-01     4.4902e-01     4.4732e-01     4.0858e-01     4.4554e-01     3.8737e-01     4.7617e-01     4.0247e-01     4.6158e-01     4.1927e-01     3.4933e-01     4.2861e-01     4.0574e-01     4.0282e-01     4.3838e-01     4.1853e-01     4.4576e-01     4.2684e-01     4.4852e-01     4.4517e-01     4.1755e-01     3.8651e-01     4.1125e-01     4.0284e-01     3.5246e-01     4.0305e-01     4.1770e-01     5.2526e-01     4.6019e-01     2.7771e-01     5.0869e-01     2.5165e-01     4.3601e-01     4.9044e-01     4.0701e-01     4.2426e-01     4.5368e-01     2.9797e-01     4.0172e-01     5.0756e-01     4.4148e-01     3.7673e-01     4.0813e-01     4.0688e-01     4.5527e-01     4.5234e-01     4.6975e-01     4.1059e-01     3.8710e-01     4.3461e-01     4.3668e-01     4.4247e-01     4.0146e-01     4.2647e-01     4.1621e-01     4.1529e-01     2.7142e-01     3.0048e-01     5.3857e-01     5.3025e-01     4.7832e-01     4.1142e-01     4.5488e-01     4.0471e-01     3.9876e-01     4.8620e-01     2.4945e-01     4.0251e-01     3.4815e-01     2.7120e-01     4.4171e-01     4.3522e-01     4.1764e-01     3.8455e-01     3.8534e-01     3.9535e-01     3.8086e-01     4.6770e-01     4.1829e-01     4.5641e-01     4.4604e-01     4.9889e-01     4.2567e-01     3.9859e-01     3.9451e-01     3.1137e-01     4.4097e-01     4.3041e-01     3.3894e-01     3.6141e-01     3.9110e-01     3.5175e-01     4.0256e-01     4.0254e-01     2.4981e-01     4.0614e-01     4.6541e-01     3.9932e-01     4.1228e-01     4.3038e-01     4.6443e-01     2.9850e-01     4.4795e-01     5.2667e-01     3.9644e-01     5.5125e-01     4.7109e-01     4.3536e-01     4.7380e-01     2.6179e-01     4.1783e-01     3.3523e-01     3.5757e-01     2.9516e-01     2.7501e-01     3.8777e-01     2.7009e-01     4.4895e-01     4.4924e-01     4.3597e-01     4.3043e-01     3.7977e-01     4.3775e-01     4.0323e-01     4.1374e-01     3.8967e-01     4.5168e-01     4.2330e-01     3.8631e-01     4.0477e-01     2.3982e-01     4.4200e-01     4.5066e-01     4.4229e-01     4.6073e-01     4.0897e-01     4.5951e-01     5.2760e-01     2.4165e-01     3.9364e-01     3.2430e-01     4.3062e-01     3.9993e-01     3.7148e-01     4.2840e-01     4.0791e-01     4.4121e-01     4.8578e-01     3.0974e-01     4.0874e-01     4.3888e-01     4.1322e-01     5.7574e-01     3.2186e-01     4.3649e-01     4.5312e-01     2.4553e-01     3.2010e-01     4.2694e-01     3.3404e-01     4.6353e-01     4.3969e-01     3.2856e-01     4.3413e-01     5.5122e-01     4.3156e-01     4.3198e-01     4.3008e-01     4.3111e-01     4.7168e-01     4.5591e-01     3.1002e-01     4.4366e-01     4.2917e-01     4.4550e-01     4.5338e-01     4.2372e-01     2.8708e-01     5.1748e-01     3.8408e-01     4.0806e-01     5.3503e-01     4.8237e-01     4.1420e-01     3.9158e-01     5.1925e-01     5.2297e-01     3.9595e-01     4.9049e-01     3.6234e-01     4.2925e-01     5.4489e-01     3.2683e-01     4.0342e-01     3.3066e-01     1.8823e-01     4.1263e-01     4.2862e-01     4.1418e-01     4.3250e-01     3.9347e-01     4.3967e-01     4.3887e-01     4.4249e-01     3.3480e-01     4.2499e-01     3.9025e-01     4.3032e-01     3.0203e-01     4.3455e-01     4.1289e-01     4.0991e-01     3.8993e-01     4.6318e-01     4.0349e-01     3.0236e-01     2.9275e-01     4.4609e-01     4.1251e-01     3.9633e-01     3.6333e-01     4.5068e-01     4.0730e-01     4.1195e-01     4.2928e-01     4.5008e-01     4.2336e-01     3.9015e-01     4.4067e-01     4.6036e-01     4.5432e-01     4.3497e-01     2.4185e-01     4.1944e-01     5.1518e-01     4.2512e-01     4.4666e-01     4.3291e-01     4.3732e-01     4.1973e-01     2.5569e-01     5.1297e-01     4.2559e-01     4.1672e-01     4.4103e-01     5.0630e-01     3.8750e-01     4.2043e-01     4.2500e-01     3.7604e-01     4.0808e-01     3.2557e-01     4.4856e-01     4.8901e-01     4.4443e-01     4.3278e-01     4.2685e-01     5.3608e-01     4.5330e-01     4.6923e-01     4.6481e-01     4.4470e-01     5.4102e-01     4.9058e-01     4.4184e-01     4.4197e-01     4.3016e-01     4.3430e-01     4.6940e-01     4.2199e-01     2.8721e-01     4.0900e-01     3.3799e-01     4.2328e-01     4.5067e-01     4.2587e-01     5.1981e-01     4.1377e-01     4.4757e-01     3.8294e-01     4.8758e-01     4.1051e-01     4.3480e-01     2.3911e-01     4.2911e-01     3.9809e-01     2.7448e-01     4.3444e-01     4.0117e-01     4.4927e-01     3.0133e-01     4.5860e-01     4.3567e-01     3.8383e-01     4.5733e-01     4.2488e-01     5.3927e-01     4.5381e-01     3.8595e-01     4.6849e-01     4.3362e-01     3.1171e-01     4.2652e-01     4.3462e-01     4.3210e-01     2.6486e-01     4.4613e-01     3.8903e-01     4.6331e-01     3.7038e-01     4.3584e-01     4.4919e-01     4.4425e-01     3.9345e-01     4.4823e-01     4.9538e-01     5.2101e-01     3.5393e-01     4.3598e-01     4.6297e-01     4.0637e-01     3.7202e-01     4.8106e-01     3.7364e-01     4.5498e-01     4.3015e-01     3.9135e-01     4.0692e-01     3.7624e-01     4.2086e-01     3.6163e-01     4.5758e-01     4.0145e-01     4.3087e-01     4.1825e-01     3.9451e-01     4.1829e-01     3.9323e-01     3.8609e-01     4.5284e-01     4.4015e-01     4.5992e-01     4.6324e-01     4.0182e-01     3.6713e-01     4.3095e-01     4.7273e-01     4.0472e-01     3.9854e-01     4.3574e-01     4.0420e-01     4.1016e-01     4.4412e-01     3.7902e-01     4.0744e-01     3.7965e-01     4.0837e-01     4.2230e-01     4.4637e-01     4.6564e-01     3.9029e-01     3.6719e-01     4.4655e-01     4.1813e-01     3.9456e-01     4.4849e-01     3.9293e-01     3.8748e-01     4.0990e-01     4.4881e-01     3.9679e-01     4.4759e-01     4.5808e-01     4.0035e-01     3.7208e-01     3.8806e-01     3.9283e-01     3.8451e-01     4.7251e-01     4.4431e-01     4.4003e-01     4.0523e-01     4.4440e-01     4.2878e-01     4.5086e-01     4.5251e-01     4.2109e-01     3.4010e-01     4.4243e-01     4.4546e-01     4.2799e-01     4.3134e-01     4.2449e-01     3.8751e-01     3.9777e-01     4.9662e-01     4.4108e-01     4.5205e-01     4.5737e-01     3.9448e-01     4.0952e-01     3.8512e-01     4.2988e-01     3.5490e-01     4.1552e-01     4.5171e-01     4.4187e-01     4.5133e-01     4.3434e-01     4.7413e-01     3.7677e-01     4.4683e-01     4.0628e-01     3.4647e-01     4.1557e-01     4.3731e-01     4.1851e-01     4.2593e-01     4.5576e-01     4.8417e-01     3.9515e-01     4.7001e-01     4.2617e-01     3.9241e-01     4.4302e-01     4.1867e-01     4.7133e-01     4.1045e-01     3.8874e-01     4.6310e-01     3.8481e-01     3.9054e-01     3.6502e-01     4.2969e-01     4.2513e-01     3.6682e-01     4.5027e-01     4.3477e-01     4.0601e-01     4.4268e-01     4.5500e-01     4.1710e-01     4.4379e-01     3.8912e-01     4.8222e-01     4.1261e-01     3.8700e-01     4.6065e-01     3.8784e-01     4.1907e-01     4.1568e-01     4.4662e-01     4.4866e-01     3.7837e-01     4.5645e-01     4.1588e-01     3.9185e-01     4.4979e-01     4.1581e-01     4.3972e-01     4.5488e-01     3.9697e-01     4.1946e-01     4.4011e-01     3.9003e-01     3.5679e-01     4.3786e-01     3.8794e-01     4.0982e-01     4.3879e-01     4.5000e-01     4.4878e-01     4.5632e-01     4.4309e-01     4.3403e-01     4.5675e-01     3.9567e-01     4.4848e-01     3.9007e-01     4.1134e-01     4.3650e-01     4.2183e-01     4.0441e-01     4.4488e-01     3.9413e-01     4.5301e-01     4.6613e-01     4.4632e-01     4.2349e-01     4.2859e-01     4.3976e-01     3.9859e-01     3.7255e-01     4.5462e-01     3.8599e-01     4.3410e-01     3.8325e-01     3.7975e-01     4.5812e-01     4.0691e-01     4.2461e-01     3.9037e-01     3.8229e-01     4.4949e-01     3.9973e-01     4.2696e-01     4.7244e-01     4.2559e-01     4.1912e-01     4.1872e-01     4.6708e-01     4.5773e-01     4.3578e-01     3.6066e-01     4.2650e-01     4.2354e-01     3.8161e-01     3.7430e-01     4.1455e-01     4.3223e-01     3.8621e-01     3.8487e-01     4.3827e-01     3.9551e-01     4.0043e-01     4.5424e-01     4.1617e-01     4.3515e-01     4.9923e-01     4.0776e-01     4.4077e-01     4.6603e-01     4.1369e-01     4.0401e-01     3.9806e-01     3.5829e-01     4.0015e-01     3.8758e-01     4.2461e-01     4.4866e-01     3.9768e-01     3.7597e-01     4.8908e-01     4.4335e-01     4.2522e-01     4.4037e-01     3.9738e-01     4.2938e-01     4.1353e-01     3.9246e-01     3.7844e-01     4.0692e-01     3.8825e-01     4.4938e-01     3.9515e-01     4.7868e-01     4.4320e-01     3.8424e-01     4.1757e-01     4.4486e-01     4.3675e-01     4.4397e-01     4.0281e-01     4.5241e-01     3.8940e-01     4.4513e-01     4.3286e-01     3.7910e-01     4.0955e-01     4.4935e-01     4.1042e-01     3.7263e-01     3.4493e-01     4.3260e-01     4.2654e-01     4.8581e-01     3.9253e-01     3.7120e-01     4.5034e-01     4.4418e-01     4.2369e-01     4.7832e-01     4.3005e-01     4.1006e-01     4.5497e-01     4.5108e-01     3.3976e-01     4.1148e-01     4.7856e-01     4.6601e-01     4.1880e-01     4.1430e-01     4.2352e-01     4.3449e-01     3.4928e-01     3.5757e-01     3.6287e-01     3.7942e-01     3.3002e-01     4.4680e-01     4.5606e-01     4.1451e-01     3.9952e-01     4.0518e-01     4.3548e-01     3.9388e-01     4.4444e-01     3.8683e-01     3.8833e-01     3.9368e-01     3.9921e-01     4.1137e-01     3.4761e-01     4.3083e-01     4.2180e-01     4.1652e-01     4.5493e-01     3.9455e-01     3.7286e-01     3.8757e-01     3.8783e-01     4.4206e-01     3.8175e-01     3.7670e-01     3.9430e-01     3.7979e-01     4.7432e-01     3.9356e-01     3.6163e-01     4.5149e-01     3.6478e-01     3.8656e-01     4.0459e-01     3.9335e-01     4.4015e-01     4.2341e-01     4.5751e-01     4.7189e-01     4.6747e-01     3.7586e-01     3.6669e-01     3.8285e-01     4.0393e-01     3.7519e-01     4.0944e-01     4.6119e-01     4.4959e-01     4.1274e-01     3.5499e-01     4.4114e-01     4.3860e-01     4.6283e-01     4.0918e-01     4.7034e-01     3.8512e-01     4.0424e-01     3.8739e-01     4.0484e-01     4.3604e-01     4.1874e-01     4.2972e-01     4.0517e-01     4.6962e-01     4.4432e-01     4.4219e-01     3.7038e-01     3.8579e-01     4.0777e-01     4.2314e-01     3.9566e-01     4.0512e-01     4.0005e-01     3.5322e-01     4.3816e-01     3.6791e-01     4.5551e-01     3.9340e-01     3.9221e-01     4.6137e-01     4.0998e-01     3.8426e-01     4.2049e-01     3.9227e-01     4.2082e-01     4.1330e-01     3.7754e-01     3.7963e-01     3.7501e-01     3.8061e-01     4.0830e-01     4.1530e-01     3.9497e-01     4.4549e-01     4.7557e-01     4.7706e-01     4.4405e-01     3.8632e-01     4.4789e-01     3.7524e-01     3.3622e-01     3.9568e-01     4.0511e-01     4.1359e-01     4.0288e-01     3.8414e-01     3.6290e-01     4.1147e-01     4.0603e-01     4.2201e-01     4.4736e-01     3.8583e-01     4.4522e-01     3.9686e-01     3.6736e-01     4.0903e-01     3.4457e-01     4.1709e-01     4.4572e-01     3.7036e-01     4.5351e-01     4.2646e-01     4.3127e-01     4.1351e-01     4.3846e-01     4.4063e-01     4.4426e-01     4.1987e-01     3.8332e-01     3.9362e-01     4.8466e-01     4.4322e-01     4.4099e-01     4.3437e-01     3.5244e-01     4.3330e-01     4.4269e-01     4.2226e-01     4.4293e-01     4.4199e-01     4.7524e-01     4.4554e-01     4.4369e-01     3.8430e-01     3.7247e-01     4.5250e-01     3.4926e-01     3.9576e-01     4.3849e-01     3.8913e-01     4.7931e-01     3.6834e-01     3.6600e-01     4.1562e-01     4.3785e-01     4.0298e-01     4.3901e-01     4.5734e-01     4.2430e-01     4.4220e-01     4.3636e-01     4.4371e-01     4.8782e-01     4.4598e-01     3.7624e-01     4.3608e-01     4.2966e-01     3.9556e-01     4.7847e-01     4.0488e-01     3.8494e-01     4.6235e-01     4.2693e-01     3.9938e-01     4.4193e-01     4.4665e-01     3.5555e-01     3.4161e-01     4.0618e-01     4.4293e-01     4.1433e-01     4.0402e-01     4.4762e-01     3.8593e-01     4.1094e-01     3.5849e-01     4.1854e-01     3.8182e-01     4.1803e-01     4.1522e-01     4.8372e-01     3.9453e-01     4.4654e-01     3.8608e-01     4.1194e-01     3.8159e-01     4.1472e-01     3.6955e-01     3.9160e-01     3.4108e-01     4.1974e-01     4.1447e-01     3.7256e-01     3.7426e-01     4.1544e-01     3.9138e-01     4.3178e-01     3.9247e-01     4.0923e-01     3.7402e-01     4.6342e-01     4.4145e-01     4.1220e-01     4.7349e-01     4.1837e-01     4.0336e-01     4.1712e-01     3.8203e-01     3.9883e-01     4.4466e-01     3.9286e-01     4.5152e-01     4.0325e-01     3.4409e-01     4.6252e-01     4.8576e-01     4.4243e-01     4.0511e-01     4.0790e-01     4.8936e-01     4.2787e-01     3.8715e-01     4.3537e-01     4.5568e-01     4.1325e-01     4.1493e-01     3.5972e-01     4.0256e-01     4.5476e-01     4.3697e-01     4.1730e-01     4.2566e-01     4.2940e-01     4.4649e-01     4.1390e-01     3.6237e-01     4.6895e-01     4.7878e-01     4.2939e-01     3.9409e-01     3.9086e-01     4.2584e-01     4.2202e-01     4.2664e-01     4.0385e-01     3.9987e-01     4.1540e-01     4.4279e-01     4.1969e-01     4.3276e-01     3.9087e-01     3.9000e-01     4.3377e-01     3.7438e-01     4.1546e-01     4.1502e-01     4.2717e-01     3.9232e-01     4.3260e-01     4.3989e-01     3.9570e-01     3.8694e-01     3.8407e-01     3.9172e-01     4.0725e-01     4.2462e-01     4.6931e-01     3.9367e-01     3.8472e-01     4.3148e-01     4.0708e-01     4.2853e-01     4.3769e-01     4.3376e-01     4.1756e-01     4.0983e-01     3.5736e-01     4.4842e-01     3.8521e-01     4.4171e-01     3.9625e-01     4.5149e-01     4.0518e-01     4.3827e-01     4.0448e-01     4.4721e-01     3.7499e-01     4.4117e-01     3.8747e-01     3.9421e-01     3.6485e-01     4.3179e-01     3.8491e-01     4.3723e-01     4.0922e-01     4.3132e-01     3.7548e-01     4.2838e-01     3.8935e-01     4.0976e-01     4.1130e-01     4.1065e-01     3.9850e-01     4.1825e-01     4.3335e-01     3.8733e-01     3.5302e-01     4.6561e-01     4.0442e-01     4.3599e-01     4.6879e-01     4.2885e-01     3.9869e-01     4.3229e-01     4.1625e-01     4.3378e-01     4.2987e-01     3.8893e-01     3.6172e-01     4.4865e-01     4.2799e-01     4.1933e-01     4.4095e-01     4.5416e-01     4.1686e-01     3.7874e-01     4.3487e-01     4.0584e-01     4.0430e-01     3.7259e-01     3.6164e-01     4.5780e-01     3.9784e-01     4.4290e-01     4.8217e-01     4.0680e-01     4.0684e-01     4.1462e-01     4.3930e-01     4.2137e-01     4.3032e-01     4.4791e-01     4.0826e-01     4.0844e-01     4.1390e-01     3.9730e-01     4.7080e-01     4.4512e-01     3.9447e-01     4.4503e-01     4.4618e-01     4.5694e-01     3.8012e-01     4.1556e-01     4.1508e-01     4.3962e-01     4.4287e-01     4.4856e-01     4.0491e-01     3.9602e-01     3.9280e-01     4.0972e-01     4.3388e-01     4.2962e-01     4.0458e-01     4.1811e-01     4.4852e-01     4.5622e-01     3.7642e-01     4.3187e-01     4.6111e-01     4.4104e-01     4.1816e-01     4.5247e-01     4.0286e-01     4.2794e-01     3.7243e-01     4.2894e-01     4.0295e-01     4.1618e-01     4.5701e-01     4.0335e-01     3.7428e-01     4.0826e-01     3.4298e-01     3.5216e-01     4.0230e-01     3.9345e-01     4.7198e-01     4.0550e-01     4.8862e-01     4.4689e-01     4.1870e-01     3.9660e-01     3.9125e-01     4.5789e-01     4.2257e-01     4.2710e-01     4.2733e-01     4.5818e-01     3.8728e-01     4.2422e-01     4.0262e-01     4.1564e-01     4.2476e-01     4.1803e-01     4.4225e-01     3.7584e-01     4.1360e-01     4.1570e-01     3.9894e-01     4.1993e-01     3.7574e-01     4.0405e-01     4.0762e-01     3.9005e-01     3.9727e-01     3.8423e-01     4.0240e-01     3.9635e-01     4.2419e-01     4.6860e-01     3.5180e-01     4.5680e-01     4.0562e-01     4.1061e-01     4.2254e-01     4.1603e-01     4.3019e-01     3.9909e-01     4.6030e-01     4.0585e-01     4.2833e-01     3.9498e-01     4.2133e-01     4.0801e-01     4.1558e-01     4.2599e-01     4.3409e-01     4.3340e-01     4.3066e-01     3.6320e-01     4.1798e-01     3.5573e-01     3.9164e-01     4.1194e-01     4.8197e-01     4.1451e-01     4.2817e-01     4.2069e-01     4.0125e-01     4.0870e-01     4.4767e-01     4.0619e-01     3.8742e-01     4.0392e-01     4.5186e-01     4.3459e-01     3.6487e-01     3.8362e-01     3.8486e-01     4.3389e-01     4.0432e-01     3.8636e-01     4.2746e-01     4.0901e-01     4.0687e-01     4.1524e-01     4.4144e-01     4.2531e-01     4.7628e-01     3.6307e-01     4.3441e-01     4.0121e-01     4.3857e-01     4.2484e-01     3.8854e-01     4.4563e-01     4.3805e-01     4.3718e-01     4.4206e-01     4.2171e-01     4.4043e-01     4.1076e-01     4.0456e-01     3.7305e-01     4.5828e-01     4.2835e-01     4.5989e-01     4.5452e-01     3.7342e-01     4.7436e-01     4.1033e-01     4.8041e-01     4.8000e-01     4.0701e-01     4.4857e-01     4.6186e-01     3.6458e-01     3.9006e-01     4.3028e-01     4.0702e-01     3.7293e-01     4.3898e-01     3.9737e-01     3.7200e-01     4.4644e-01     3.9562e-01     4.2330e-01     4.6376e-01     3.6414e-01     4.1854e-01     3.8427e-01     3.8902e-01     4.4270e-01     3.9656e-01     4.0542e-01     4.3523e-01     4.5175e-01     4.3177e-01     4.1742e-01     3.8125e-01     4.3148e-01     4.9182e-01     4.0235e-01     4.5007e-01     4.0474e-01     4.2128e-01     4.1763e-01     3.8248e-01     3.9188e-01     4.0383e-01     4.2031e-01     3.7454e-01     4.0388e-01     4.2294e-01     4.2326e-01     4.1027e-01     4.3909e-01     4.4416e-01     4.3385e-01     4.2991e-01     4.0986e-01     4.2358e-01     3.9611e-01     4.7837e-01     4.2115e-01     4.0522e-01     4.6623e-01     4.3195e-01     4.0676e-01     4.7656e-01     4.2415e-01     4.2941e-01     4.4747e-01     4.2691e-01     3.7615e-01     4.0510e-01     4.5120e-01     3.9391e-01     4.0196e-01     4.3146e-01     3.9098e-01     3.7722e-01     4.0060e-01     4.7994e-01     4.1240e-01     3.9418e-01     4.3750e-01     4.3410e-01     4.0448e-01     4.1196e-01     4.1712e-01     4.1682e-01     4.4210e-01     4.3052e-01     3.9979e-01     4.2569e-01     4.3067e-01     3.6852e-01     3.8867e-01     4.3777e-01     4.6949e-01     4.3912e-01     4.4300e-01     3.7597e-01     4.4096e-01     3.9067e-01     4.0532e-01     3.7463e-01     4.2112e-01     4.1478e-01     4.1796e-01     4.7802e-01     4.4271e-01     4.7158e-01     3.8549e-01     4.2326e-01     4.5184e-01     4.7432e-01     3.6908e-01     3.6951e-01     3.9320e-01     4.2511e-01     4.3972e-01     3.8767e-01     4.4353e-01     4.3510e-01     4.1259e-01     4.0107e-01     3.9605e-01     3.6987e-01     4.2540e-01     3.7936e-01     4.1881e-01     4.4317e-01     4.2726e-01     4.2861e-01     4.6499e-01     4.0510e-01     4.0562e-01     4.6392e-01     4.2730e-01     4.4820e-01     4.5171e-01     4.3368e-01     4.3578e-01     4.4201e-01     3.9291e-01     4.3371e-01     4.6168e-01     4.1665e-01     4.5908e-01     4.0591e-01     4.5176e-01     4.0544e-01     3.9801e-01     4.3362e-01     4.1209e-01     3.9415e-01     4.2695e-01     3.8784e-01     3.9504e-01     4.1910e-01     4.0175e-01     3.7659e-01     4.0640e-01     4.0360e-01     3.9598e-01     3.9455e-01     3.7318e-01     4.0718e-01     4.3551e-01     3.5926e-01     4.2469e-01     4.6748e-01     4.3966e-01     4.2186e-01     4.0746e-01     4.2652e-01     3.5933e-01     3.5633e-01     4.5927e-01     4.5128e-01     4.0603e-01     3.8505e-01     4.3592e-01     4.4570e-01     4.1295e-01     4.6096e-01     4.0515e-01     4.1612e-01     4.3501e-01     4.4865e-01     4.2334e-01     4.1273e-01     4.1924e-01     4.2259e-01     4.3221e-01     3.7272e-01     3.9965e-01     4.0772e-01     4.1810e-01     4.3319e-01     4.3875e-01     4.0699e-01     4.0580e-01     4.0325e-01     3.9826e-01     4.6297e-01     3.9187e-01     3.8132e-01     4.4961e-01     4.0809e-01     4.5001e-01     4.2772e-01     4.2079e-01     4.0859e-01     4.6295e-01     4.3726e-01     4.1769e-01     4.2575e-01     4.6074e-01     4.2235e-01     3.9414e-01     4.3868e-01     3.7657e-01     4.2597e-01     4.0729e-01     4.3642e-01     4.3113e-01     4.0459e-01     4.4063e-01     3.7691e-01     3.8224e-01     4.2156e-01     4.3330e-01     4.1790e-01     3.7450e-01     4.4957e-01     3.9574e-01     4.1235e-01     4.5255e-01     4.0666e-01     4.0240e-01     4.5777e-01     4.0001e-01     4.2875e-01     4.1197e-01     3.7656e-01     3.8880e-01     4.2085e-01     4.2536e-01     4.1528e-01     3.8964e-01     4.5927e-01     3.9009e-01     4.8315e-01     4.0087e-01     4.0918e-01     3.9672e-01     3.9965e-01     3.8659e-01     3.9652e-01     4.1185e-01     3.8368e-01     4.0333e-01     4.0004e-01     4.1875e-01     4.2468e-01          error     2.5000e+01     1.0000e+00
