$DATA1 SOURCE='FineSimPro' VERSION='L-2016.06-SP2-2'
.TITLE '** Generated for: hspiceD'
        avgval0        avgval1        avgval2        avgval3        avgval4        avgval5        avgval6        avgval7        avgval8        avgval9            bld          bldin          czabd         temper         alter#
     6.6417e-01     6.3134e-01     6.2907e-01     6.2514e-01     6.3485e-01     6.0603e-01     6.1729e-01     6.2069e-01     6.4890e-01     6.2145e-01     6.2863e-01     6.3597e-01          error     2.5000e+01     1.0000e+00
