$DATA1 SOURCE='FineSimPro' VERSION='L-2016.06-SP2-2'
.TITLE '** Generated for: hspiceD'
        avgval0        avgval1        avgval2        avgval3        avgval4        avgval5        avgval6        avgval7        avgval8        avgval9            bld          bldin          czabd         temper         alter#
     6.6228e-01     6.3984e-01     6.2498e-01     6.3379e-01     6.3672e-01     6.1483e-01     6.1075e-01     6.2497e-01     6.5110e-01     6.2863e-01     6.2863e-01     6.3597e-01          error     2.5000e+01     1.0000e+00
