$DATA1 SOURCE='FineSimPro' VERSION='L-2016.06-SP2-2'
.TITLE '** Generated for: hspiceD'
        avgval0        avgval1        avgval2        avgval3        avgval4        avgval5        avgval6        avgval7        avgval8        avgval9            bld          bldin          czabd         temper         alter#
     6.6546e-01     6.2633e-01     6.2633e-01     6.3063e-01     6.4244e-01     6.1445e-01     6.1221e-01     6.1557e-01     6.5040e-01     6.1421e-01     6.2863e-01     6.3597e-01          error     2.5000e+01     1.0000e+00
