$DATA1 SOURCE='FineSimPro' VERSION='L-2016.06-SP2-2'
.TITLE '** Generated for: hspiceD'
        avgval0        avgval1        avgval2        avgval3        avgval4        avgval5        avgval6        avgval7        avgval8        avgval9            bld          bldin          czabd         temper         alter#
     6.6324e-01     6.3670e-01     6.2654e-01     6.2841e-01     6.3567e-01     6.1619e-01     6.1167e-01     6.1505e-01     6.4448e-01     6.3166e-01     6.2863e-01     6.3597e-01          error     2.5000e+01     1.0000e+00
