$DATA1 SOURCE='FineSimPro' VERSION='L-2016.06-SP2-2'
.TITLE '** Generated for: hspiceD'
        avgval0        avgval1        avgval2        avgval3        avgval4        avgval5        avgval6        avgval7        avgval8        avgval9            bld          bldin          czabd         temper         alter#
     6.6145e-01     6.3070e-01     6.3909e-01     6.3287e-01     6.2742e-01     6.0976e-01     6.1427e-01     6.2639e-01     6.5237e-01     6.2078e-01     6.2863e-01     6.3597e-01          error     2.5000e+01     1.0000e+00
