$DATA1 SOURCE='FineSimPro' VERSION='L-2016.06-SP2-2'
.TITLE '** Generated for: hspiceD'
        avgval0        avgval1        avgval2        avgval3        avgval4        avgval5        avgval6        avgval7        avgval8        avgval9            bld          bldin          czabd         temper         alter#
     6.6395e-01     6.2633e-01     6.3616e-01     6.3276e-01     6.2919e-01     6.1336e-01     6.1358e-01     6.2136e-01     6.5179e-01     6.1742e-01     6.2863e-01     6.3597e-01          error     2.5000e+01     1.0000e+00
