$DATA1 SOURCE='FineSimPro' VERSION='L-2016.06-SP2-2'
.TITLE '** Generated for: hspiceD'
        avgval0        avgval1        avgval2        avgval3        avgval4        avgval5        avgval6        avgval7        avgval8        avgval9            bld          bldin          czabd         temper         alter#
     6.6923e-01     6.3068e-01     6.2650e-01     6.2867e-01     6.3741e-01     6.0904e-01     6.1131e-01     6.1690e-01     6.5444e-01     6.2757e-01     6.2863e-01     6.3597e-01          error     2.5000e+01     1.0000e+00
