$DATA1 SOURCE='FineSimPro' VERSION='L-2016.06-SP2-2'
.TITLE '** Generated for: hspiceD'
        avgval0        avgval1        avgval2        avgval3        avgval4        avgval5        avgval6        avgval7        avgval8        avgval9            bld          bldin          czabd         temper         alter#
     6.5724e-01     6.3676e-01     6.2993e-01     6.3389e-01     6.3391e-01     6.0905e-01     6.0676e-01     6.1659e-01     6.5023e-01     6.2501e-01     6.2863e-01     6.3597e-01          error     2.5000e+01     1.0000e+00
