$DATA1 SOURCE='FineSimPro' VERSION='L-2016.06-SP2-2'
.TITLE '** Generated for: hspiceD'
        avgval0        avgval1        avgval2        avgval3        avgval4        avgval5        avgval6        avgval7        avgval8        avgval9            bld          bldin          czabd         temper         alter#
     6.6052e-01     6.3440e-01     6.2972e-01     6.2642e-01     6.3307e-01     6.0431e-01     6.1386e-01     6.2316e-01     6.4789e-01     6.1592e-01     6.2863e-01     6.3597e-01          error     2.5000e+01     1.0000e+00
