$DATA1 SOURCE='FineSimPro' VERSION='L-2016.06-SP2-2'
.TITLE '** Generated for: hspiceD'
        avgval0        avgval1        avgval2        avgval3        avgval4        avgval5        avgval6        avgval7        avgval8        avgval9            bld          bldin          czabd         temper         alter#
     6.7193e-01     6.2565e-01     6.2820e-01     6.2787e-01     6.2679e-01     6.0451e-01     6.0679e-01     6.1948e-01     6.5211e-01     6.1576e-01     6.2863e-01     6.3597e-01          error     2.5000e+01     1.0000e+00
